Version 4.1
SHEET 1 880 680
WIRE -496 112 -576 112
WIRE -352 112 -416 112
WIRE -224 112 -272 112
WIRE -64 112 -144 112
WIRE 240 112 -64 112
WIRE 416 112 304 112
WIRE 560 112 416 112
WIRE 672 112 560 112
WIRE 64 176 -16 176
WIRE -576 192 -576 112
WIRE -64 192 -64 112
WIRE 64 192 64 176
WIRE -16 208 -16 176
WIRE 560 208 560 112
WIRE 672 208 672 112
WIRE 416 224 416 112
WIRE -16 288 -16 256
WIRE 64 288 64 272
WIRE 64 288 -16 288
WIRE -576 400 -576 272
WIRE -64 400 -64 272
WIRE -64 400 -576 400
WIRE 192 400 -64 400
WIRE 416 400 416 288
WIRE 416 400 192 400
WIRE 560 400 560 288
WIRE 560 400 416 400
WIRE 672 400 672 288
WIRE 672 400 560 400
WIRE 192 448 192 400
FLAG -576 112 Ue
FLAG 672 112 Ua
FLAG 192 448 0
SYMBOL voltage -576 176 R0
SYMATTR InstName V1
SYMATTR Value 10
SYMBOL ind -368 128 R270
WINDOW 0 32 56 VTop 2
WINDOW 3 5 56 VBottom 2
SYMATTR InstName L1
SYMATTR Value 1m
SYMBOL diode 240 128 R270
WINDOW 0 32 32 VTop 2
WINDOW 3 0 32 VBottom 2
SYMATTR InstName D1
SYMBOL cap 400 224 R0
SYMATTR InstName C1
SYMATTR Value 220µ
SYMBOL res 656 192 R0
SYMATTR InstName Rl
SYMATTR Value 100
SYMBOL voltage 64 176 R0
WINDOW 3 -118 133 Left 2
SYMATTR Value PULSE(0 10 0 0 0 {d*1/fs}{1/fs})
SYMATTR InstName V2
SYMBOL sw -64 288 R180
SYMATTR InstName S1
SYMBOL res 544 192 R0
SYMATTR InstName R1
SYMATTR Value 10k
SYMBOL res -400 96 R90
WINDOW 0 0 56 VBottom 2
WINDOW 3 32 56 VTop 2
SYMATTR InstName Rv
SYMATTR Value 3.3
SYMBOL res -128 96 R90
WINDOW 0 0 56 VBottom 2
WINDOW 3 32 56 VTop 2
SYMATTR InstName R2
SYMATTR Value 0.3
TEXT -296 -104 Left 2 !.model SW SW(Ron=0.01 Roff=1Meg Von=1V Voff=0V)
TEXT -296 -72 Left 2 !.tran 0 50m 9992u 1u uic
TEXT -576 536 Left 2 !.meas TRAN Delta_I PP I(Rv) FROM 0 TO 40m
TEXT -576 576 Left 2 !.meas TRAN Ie_Eff RMS I(Rv) FROM 0 TO 40m
TEXT 208 536 Left 2 !.meas TRAN Delta_U PP V(Ua) FROM 0 TO 40m
TEXT 208 576 Left 2 !.meas TRAN Ua_Eff RMS V(Ua) FROM 0 TO 40m
TEXT -360 496 Left 2 ;STROM
TEXT 416 504 Left 2 ;SPANNUNG
TEXT -288 -8 Left 2 !.param d 0.6
TEXT -288 -40 Left 2 !.step param fs 2.5k 7.5k 2.5k
